electric-grid/physical/synthetic/synAustinTD/models/syn-austin-D_only-v03/P1R/base/opendss/p1rhs3_1247/Master.dss
Clear

New Circuit.substation_p1rhs3_69 bus1=p1rhs3_69 pu=1.0 basekV=69.0 R1=1e-05 X1=1e-05 R0=1e-05 X0=1e-05

Redirect Transformers.dss
Redirect p1rhs3_1247--p1rdt2378/Transformers.dss
Redirect p1rhs3_1247--p1rdt2874/Transformers.dss
Redirect p1rhs3_1247--p1rdt8208/Transformers.dss
Redirect p1rhs3_1247--p1rdt3467/Transformers.dss
Redirect p1rhs3_1247--p1rdt8207/Transformers.dss
Redirect Regulators.dss
Redirect p1rhs3_1247--p1rdt2874/Regulators.dss
Redirect p1rhs3_1247--p1rdt8208/Regulators.dss
Redirect p1rhs3_1247--p1rdt3467/Regulators.dss
Redirect p1rhs3_1247--p1rdt8207/Regulators.dss
Redirect p1rhs3_1247--p1rdt2378/Loads.dss
Redirect p1rhs3_1247--p1rdt2874/Loads.dss
Redirect p1rhs3_1247--p1rdt8208/Loads.dss
Redirect p1rhs3_1247--p1rdt3467/Loads.dss
Redirect p1rhs3_1247--p1rdt8207/Loads.dss
Redirect LineCodes.dss
Redirect p1rhs3_1247--p1rdt2378/LineCodes.dss
Redirect p1rhs3_1247--p1rdt2874/LineCodes.dss
Redirect p1rhs3_1247--p1rdt8208/LineCodes.dss
Redirect p1rhs3_1247--p1rdt3467/LineCodes.dss
Redirect p1rhs3_1247--p1rdt8207/LineCodes.dss
Redirect Lines.dss
Redirect p1rhs3_1247--p1rdt2378/Lines.dss
Redirect p1rhs3_1247--p1rdt2874/Lines.dss
Redirect p1rhs3_1247--p1rdt8208/Lines.dss
Redirect p1rhs3_1247--p1rdt3467/Lines.dss
Redirect p1rhs3_1247--p1rdt8207/Lines.dss

Set Voltagebases=[0.2080002494301389, 0.48, 7.199560000000001, 12.47, 69.0]

Calcvoltagebases

Buscoords Buscoords.dss

Solve